_temp_cenario_1p00/LineSummary.csv
line,maxCurrentA,normAmps,maxLoadingPct,meanLoadingPct,overloadHours
rbt_1607347,93.02931166028824,124.95,74.45323062047878,25.70564723750176,0
sbt_7584,93.02932179311394,163.8,56.79445774915381,19.608796602577346,0
sbt_22840,93.02931715244897,163.8,56.794454916025,19.60879652577858,0
rbt_630758,31.595249316407948,76.65,41.220155663937305,17.132342911170497,0
rbt_637576,24.910811995049972,61.95,40.211157376997534,14.456327405227258,0
rbt_606147,25.61959125332726,76.65,33.42412427048566,12.227496811697932,0
rbt_632607,40.87394481522235,124.95,32.71224074847727,15.39709460414897,0
rbt_637918,17.927431505268054,61.95,28.938549645307592,11.125638815195162,0
rbt_1130761,25.381003138352778,90.3,28.107423187544605,13.226241157397903,0
rbt_1607350,22.12640706593278,90.3,24.50321934211825,8.723822160787487,0
rbt_605836,21.546922278448807,90.3,23.8614864656133,11.237225510570186,0
rbt_637360,14.723874497996883,61.95,23.767351893457437,11.166327967065543,0
rbt_606126,13.626246717287943,61.95,21.995555637268673,7.755029525170564,0
rbt_1633671,13.46553459980822,61.95,21.736133333023762,9.737436249977483,0
rbt_3405844,18.989412707228052,90.3,21.029249952633503,7.2109592534259255,0
rbt_626476,12.727456563460974,61.95,20.544724073383332,9.665139301357232,0
rbt_606143,14.94294697353682,76.65,19.495038452102833,6.839490566366403,0
rbt_3435739,13.538089162719155,76.65,17.662216781107833,7.930963810456043,0
rbt_635862,10.800401165855696,61.95,17.434061607515247,5.950772603233699,0
rbt_605816,10.291229856547426,61.95,16.612154732118526,6.138935662798779,0
rbt_1627323,12.526519915297408,76.65,16.342491735547824,7.687902118049403,0
sbt_34378,20.56584165491434,128.1,16.054521198215724,7.876549668225402,0
sbt_34379,20.501630460519856,128.1,16.00439536340348,7.763479072126448,0
rbt_637397,9.767211864796971,61.95,15.766282267630299,7.410166066576543,0
sbt_24791,25.61961260281459,163.8,15.640789134807441,5.7218421018527925,0
sbt_3174,25.61960370727835,163.8,15.640783704077135,5.721843718341522,0
rbt_609688,11.26619390671507,76.65,14.698230798062713,5.2709846371364435,0
smt_19119,21.155205266680824,163.8,12.91526573057437,7.809208861540777,0
smt_17184,21.15410879647133,163.8,12.914596334842082,7.808800610985581,0
rbt_606139,9.382085617423535,76.65,12.240163884440356,4.342311258136274,0
rbt_623004,7.331156992121545,61.95,11.833990302052534,4.5133376635328295,0
rbt_1638954,7.151519255832383,61.95,11.544018169220957,5.425911452957277,0
rbt_1607265,10.051457668938472,90.3,11.13118235762843,5.237926800576295,0
sbt_11363,18.215694617707882,163.8,11.120692684803346,4.074677837224032,0
sbt_9361,21.54692231752626,216.3,9.961591455167017,4.691268868251189,0
rbt_635543,5.8705678929061325,61.95,9.476300069259294,3.677959721729318,0
rbt_606121,5.803977551450784,61.95,9.368809606861637,4.401953515599596,0
rbt_1605991,5.551545941606733,61.95,8.961333239074628,4.212844740563358,0
rbt_1607280,5.506620226347106,61.95,8.888813924692665,4.177316414958432,0
sbt_34393,11.080962563477163,128.1,8.650243999591853,5.686777315923185,0
rbt_606114,7.529575726019325,90.3,8.33840058252417,3.9192263961321068,0
rbt_627337,7.329973383870945,90.3,8.117357014253539,3.8167961187453856,0
rbt_1621994,7.1888640848060765,90.3,7.961089794912598,3.741060628885252,0
rbt_626678,7.026024152654125,90.3,7.780757644135244,3.6589179108859113,0
rbt_606150,4.779806423610857,61.95,7.715587447313732,3.624622715727145,0
rbt_1607272,6.88241615165938,90.3,7.62172331302257,3.5857946183778293,0
rbt_623007,4.7013830026621575,61.95,7.588995968784758,3.56564007133654,0
sbt_22748,16.28224391207171,216.3,7.527620856251368,3.5416290446575514,0
sbt_7427,16.28223564516249,216.3,7.527617034286865,3.5416251069435236,0
sbt_34383,9.63229360323697,128.1,7.51935488152769,4.428883450800806,0
sbt_34392,9.632290442719443,128.1,7.519352414300892,4.713465170496046,0
sbt_34384,9.619859993766891,128.1,7.509648707077979,3.6270697301329355,0
rbt_1630759,5.692102764231901,76.65,7.426096235136205,3.492785281055458,0
rbt_606122,4.596057644436706,61.95,7.4189792484854005,3.4869959249821068,0
rbt_1229546,6.672259204430596,90.3,7.388991367032776,3.474613998033268,0
smt_34713,21.141971095804074,286.65,7.375535006385514,4.45961184222599,0
smt_34700,21.141828886647076,286.65,7.375485395655705,4.459582094120812,0
smt_34701,21.141492031679505,286.65,7.375367881276647,4.459511651470706,0
smt_34715,21.141203984429332,286.65,7.375267393835455,4.459451440627154,0
smt_34702,21.140918695522075,286.65,7.375167868662856,4.459391829216136,0
smt_34703,21.140527930776337,286.65,7.3750315474538075,4.4593102155139475,0
smt_34704,21.14005819595192,286.65,7.374867676941189,4.4592121649951855,0
smt_34716,21.139764625297623,286.65,7.374765262619092,4.45915091762319,0
smt_34705,21.139469474184658,286.65,7.374662296942145,4.459089364865549,0
smt_34717,21.13911779168131,286.65,7.374539609866147,4.459016054523432,0
smt_34706,21.13876173273042,286.65,7.374415396033637,4.458941867129392,0
smt_34707,21.138342524091467,286.65,7.374269151959346,4.458854567611524,0
smt_34708,21.137951966872816,286.65,7.374132903147677,4.458773278989855,0
smt_34709,21.137447984854933,286.65,7.37395708524505,4.458668445870714,0
smt_34718,21.137167245628383,286.65,7.37385914726265,4.458610080270398,0
smt_34710,21.13689271506283,286.65,7.373763375218152,4.458553026809868,0
smt_34719,21.13660559694246,286.65,7.373663211910854,4.458493380010263,0
smt_34711,21.13631941713434,286.65,7.373563375940814,4.458433951110844,0
smt_34720,21.13599313434181,286.65,7.3734495497442225,4.458366222342835,0
smt_34712,21.135692135997047,286.65,7.373344544216658,4.458303768506554,0
smt_34721,21.13547616464358,286.65,7.373269200992006,4.458258972743793,0
smt_34714,21.13546728589816,286.65,7.373266103575148,4.458257131431328,0
rbt_1638606,4.5509830856791105,61.95,7.346219670184197,3.453830219416647,0
rbt_605905,6.511345070414449,90.3,7.21079188307248,3.389525402732698,0
rbt_1607283,6.447428416797226,90.3,7.14000932092716,3.3585466084701867,0
smt_31417,22.601828887281798,327.6,6.899215167057935,4.195245595542889,0
smt_31416,22.601784452248,327.6,6.8992016032503045,4.1952374241719665,0
smt_31411,22.601767519194212,327.6,6.8991964344304675,4.1952343102169705,0
smt_31412,22.601748357564585,327.6,6.899190585337174,4.195230786530174,0
smt_31413,22.601634737746718,327.6,6.899155902853088,4.195209894773051,0
smt_31414,22.601549355505746,327.6,6.899129839897969,4.195194197037588,0
smt_31415,22.601333009372137,327.6,6.899063800174645,4.195154428376299,0
smt_4387,22.600977242927907,327.6,6.8989552023589455,4.195089053786687,0
smt_4863,22.600566770111424,327.6,6.8988299054064175,4.195013660969322,0
smt_4693,22.60022242489244,327.6,6.898724793923211,4.194950442472648,0
smt_4591,22.599907751441762,327.6,6.8986287397563375,4.1948926941229105,0
smt_17964,22.59967490447294,327.6,6.898557663148027,4.185657423386283,0
smt_4627,22.599573823878035,327.6,6.898526808265578,4.194831436008573,0
smt_4527,22.59930673949486,327.6,6.8984452806760865,4.1947824577316455,0
smt_6826,22.59924637358362,327.6,6.898426853963254,4.185578159448824,0
smt_23134,22.59887257371724,327.6,6.8983127514399385,4.194702873155175,0
smt_7012,22.598751739796953,327.6,6.898275866848887,4.185486718666147,0
smt_18545,22.598483321249372,327.6,6.898193932005301,4.1946315565103,0
smt_22791,22.59830852692595,327.6,6.898140575984722,4.185404829384503,0
smt_10381,22.598070945244253,327.6,6.898068054103862,4.194556039545922,0
smt_18806,22.59786263048574,327.6,6.898004465960238,4.194517905853001,0
smt_24122,22.597794835765157,327.6,6.897983771601085,4.194505497835071,0
smt_7020,22.59779117570375,327.6,6.897982654366223,4.185309296523432,0
smt_6842,22.597393118699184,327.6,6.897861147344073,4.18523583218231,0
smt_6830,22.596789290629932,327.6,6.897676828641615,4.185124457568922,0
smt_29390,22.59644594575379,327.6,6.8975720225133665,4.184859142499249,0
smt_31407,22.596063111942787,327.6,6.897455162375697,4.1849906215412265,0
smt_17776,22.595861019979623,327.6,6.897393473742253,4.184749995820986,0
smt_31408,22.595618423556193,327.6,6.897319421109948,4.1937602798091165,0
smt_10747,22.59526584561078,327.6,6.897211796584486,4.184639013467581,0
smt_18202,22.594749033021795,327.6,6.897054039383941,4.184542706007156,0
smt_17794,22.594269485766034,327.6,6.896907657437739,4.184453395091608,0
smt_29420,22.593973193997396,327.6,6.896817214284918,4.18439823880142,0
smt_22739,22.593800046118993,327.6,6.896764360842184,4.184366015275079,0
smt_17795,22.59322916174633,327.6,6.896590098213165,4.184259817774447,0
smt_29389,22.592592325238822,327.6,6.896395703674854,4.184141435695216,0
smt_19163,22.59204362078418,327.6,6.896228211472582,4.184039507636927,0
smt_17961,22.59169392791376,327.6,6.896121467617141,4.1839745825767185,0
smt_29388,22.591290639756217,327.6,6.8959983637839475,4.183899739999977,0
smt_17962,22.590795008387886,327.6,6.895847072157474,4.183807809005826,0
rbt_1107340,6.173549732116139,90.3,6.836710666795281,3.216882352940971,0
rbt_605822,6.172998987867085,90.3,6.836100761757569,3.2167282946899753,0
rbt_1626486,6.169221286716685,90.3,6.8319172610373045,3.2103193254440208,0
rbt_1607287,6.166563849929389,90.3,6.82897436315547,3.211864727267848,0
rbt_606132,4.12308076407554,61.95,6.6554976014133,3.1270620801243414,0
rbt_623433,5.972119754894844,90.3,6.613643139418432,3.11139383093365,0
rbt_626698,5.930211181811718,90.3,6.567232759481414,3.0864698987939136,0
rbt_1607252,4.997343438499543,76.65,6.519691374428627,3.0657777616445565,0
smt_6447,21.206597292247494,327.6,6.4733202967788435,3.9164810696473698,0
smt_6627,21.20623523656187,327.6,6.47320977917029,3.916416419630234,0
smt_24630,21.20565806603572,327.6,6.473033597691001,3.916313424423683,0
smt_24629,21.20530195707485,327.6,6.472924895321993,3.9162499181048394,0
smt_24628,21.204827206749858,327.6,6.4727799776403705,3.916165302376059,0
smt_24627,21.204474756529017,327.6,6.472672392102874,3.9161025202232262,0
smt_6957,21.204145065533886,327.6,6.472571753825972,3.9160438198283933,0
smt_6431,21.2037347817581,327.6,6.472446514578174,3.9159708073842627,0
smt_24626,21.203393362234593,327.6,6.472342296164404,3.915910081287624,0
smt_12228,21.203022164854374,327.6,6.472228988050785,3.9158440912562207,0
smt_6510,21.161476800747955,327.6,6.4595472529755655,3.9059063449853313,0
smt_19223,21.160975294883006,327.6,6.459394168157205,3.9058158724764396,0
smt_22843,21.160548452075464,327.6,6.459263874259909,3.905738917997572,0
smt_6737,21.1601761708382,327.6,6.459150235298596,3.9056718368855026,0
smt_24665,21.15969107924042,327.6,6.459002160940298,3.905584479655263,0
smt_24635,21.159189969190255,327.6,6.458849196944522,3.90549429854509,0
smt_24637,21.158671490844373,327.6,6.4586909312711756,3.905401056792717,0
smt_24636,21.15816450053725,327.6,6.458536172325167,3.9053099449885944,0
smt_19174,21.157702931215066,327.6,6.458395278148677,3.9052270508452245,0
smt_6686,21.157158457367366,327.6,6.458229077340466,3.9051293351316314,0
smt_19173,21.156242958487148,327.6,6.457949621027822,3.9049651967810415,0
smt_19172,21.155933627899774,327.6,6.457855197771603,3.9049097840255396,0
smt_6544,21.155596108507368,327.6,6.457752169874044,3.904849348479153,0
smt_6535,21.155097256213054,327.6,6.45759989505893,3.904760076405594,0
smt_24511,21.154713834989227,327.6,6.457482855613317,3.9045129065770774,0
smt_29446,21.154095582555332,327.6,6.457294133869149,3.9043978471647844,0
smt_24634,21.154006878705992,327.6,6.457267056992061,3.9045651616661505,0
smt_32671,21.15368786524274,327.6,6.457169678035024,3.904322020466554,0
smt_24633,21.15361782829619,327.6,6.457148299235711,3.9044956865266696,0
smt_6389,21.15323783589857,327.6,6.457032306440344,3.9042383718081184,0
smt_24510,21.153224014626286,327.6,6.457028087492761,3.904235803477526,0
smt_24632,21.15319934093385,327.6,6.4570205558406135,3.9044209962929712,0
smt_1873,21.15278748356846,327.6,6.456894836254108,3.9043475315506027,0
smt_24509,21.152745579243124,327.6,6.456882044946008,3.9041469309131536,0
smt_24631,21.15241845877922,327.6,6.456782191324548,3.9042817425525804,0
smt_24508,21.152326226419888,327.6,6.456754037368707,3.9040690794447834,0
smt_6527,21.152035094228026,327.6,6.456665169178273,3.904213432666415,0
smt_6426,21.151948208259725,327.6,6.456638647209928,3.9039989385065224,0
smt_6420,21.15156282339903,327.6,6.456521008363561,3.9039274667369264,0
smt_6140,21.151146401495687,327.6,6.456393895450454,3.903850279841993,0
smt_6653,21.150749227300594,327.6,6.456272657906164,3.903776700265746,0
smt_6650,21.150357900456235,327.6,6.45615320526747,3.9037042417390655,0
smt_29445,21.149974054294557,327.6,6.456036036109449,3.9036332048149305,0
smt_24507,21.149579201721988,327.6,6.455915507241143,3.9035601686502996,0
smt_24506,21.149185714364776,327.6,6.455795395105243,3.903487423051136,0
smt_24505,21.14877968135933,327.6,6.455671453406388,3.9034123978857083,0
smt_24459,21.148431309559374,327.6,6.45556511280811,3.9033480593267136,0
smt_24458,21.148011715845527,327.6,6.455437031698878,3.903270606807252,0
smt_24457,21.147589521455522,327.6,6.455308156732455,3.9031927177990156,0
smt_24456,21.147201319538226,327.6,6.455189657978701,3.903121138545643,0
smt_24455,21.14680281405067,327.6,6.45506801405698,3.9030476979325477,0
smt_24454,21.14642051569476,327.6,6.454951317367143,3.9029772807189893,0
smt_19165,21.145998417828242,327.6,6.454822471864542,3.902899574359194,0
smt_17113,21.145557105441785,327.6,6.454687761123866,3.9028183774612213,0
smt_6993,21.14458898540749,327.6,6.454392242187879,3.9026404209771237,0
smt_24453,21.144001614082022,327.6,6.4542129469114835,3.902532564575335,0
smt_24452,21.143547022145274,327.6,6.454074182584027,3.902449147988682,0
smt_24451,21.143148625313692,327.6,6.453952571829576,3.902376084794541,0
smt_24450,21.14277231023448,327.6,6.453837701536775,3.9023071070211546,0
smt_6394,21.14236063894186,327.6,6.453712038749041,3.9022316883729964,0
smt_24668,21.135457027328457,327.6,6.451604709196721,3.900973128427465,0
smt_29393,21.13529599227835,327.6,6.45155555319852,3.900943910498024,0
smt_19218,21.133942690047537,327.6,6.451142457279467,3.9006986214394304,0
smt_6502,21.133471819262706,327.6,6.450998723828665,3.9006133807060217,0
smt_24667,21.133225759372635,327.6,6.450923613972111,3.900568858684179,0
smt_6683,21.13256421399849,327.6,6.450721677044716,3.9004492327479645,0
smt_19220,21.132027468116156,327.6,6.450557835200292,3.9003522531924495,0
smt_22844,21.131654202619078,327.6,6.450443895793369,3.9002848531919443,0
smt_6687,21.131244070869958,327.6,6.4503187029517575,3.9002108358718766,0
smt_24666,21.130936608975798,327.6,6.450224850114712,3.9001553747573627,0
rbt_637356,3.905576441319097,61.95,6.304401035220495,2.96334595341131,0
rbt_631391,5.621752634668434,90.3,6.2256396840182,4.714834388720216,0
sbt_28279,13.465546804355194,216.3,6.225403053331111,2.788877697208902,0
sbt_20214,13.465539353857169,216.3,6.225399608810527,2.7888777555770274,0
rbt_605855,4.635549332787997,76.65,6.047683408725371,2.84442918132725,0
rbt_1607255,5.413685940770298,90.3,5.995222525769988,2.818072888780842,0
rbt_636933,4.50725575138824,76.65,5.880307568673502,2.76665911120542,0
rbt_605910,3.540087088326248,61.95,5.714426292697737,2.6843984847265023,0
rbt_627343,5.126007627907895,90.3,5.67664189137087,2.6673752552089955,0
rbt_1607304,3.443517051700299,61.95,5.558542456336237,2.6106393364228437,0
rbt_1607305,4.865886065422517,90.3,5.388578145539886,2.5332502708784093,0
rbt_1607285,3.304544997139665,61.95,5.334213070443365,2.504768448492054,0
rbt_606103,4.016180768103469,76.65,5.239635705288283,2.4628473379034137,0
rbt_3405846,4.003261420374453,76.65,5.222780718035815,2.4558047909956797,0
rbt_606109,3.1881137145816814,61.95,5.146269111511995,2.417698267063143,0
rbt_605825,4.646310761678162,90.3,5.1454161258894375,2.419342481207951,0
sbt_4580,8.35835429870926,163.8,5.102780402142406,2.400791007474372,0
rbt_1631852,4.599021682815327,90.3,5.093047267791061,2.3937985708188463,0
rbt_605993,4.57230379734096,90.3,5.063459354751894,2.379554268149479,0
smt_29422,21.154692558782493,419.0,5.048852639327564,3.0529252748015256,0
rbt_621999,4.538959915387536,90.3,5.026533682599708,2.362595480542723,0
rbt_630753,4.5364946508807735,90.3,5.023803600089451,2.362387022669679,0
sbt_6049,8.19870982338668,163.8,5.005317352494921,2.355142893278395,0
rbt_607384,3.002721451839297,61.95,4.847007993283771,2.2773381063333993,0
rbt_1607278,3.708768766745908,76.65,4.838576342786573,2.273467271497052,0
rbt_1628760,4.3556520807490875,90.3,4.823534973144062,2.266326794727737,0
rbt_3433894,4.331672772096517,90.3,4.796979814060373,2.2551783121043463,0
rbt_1607357,3.6540582396394377,76.65,4.767199268935991,2.24048178424738,0
sbt_25907,10.291254340600478,216.3,4.757861461211502,1.7582385302377643,0
sbt_21361,10.29124761003901,216.3,4.757858349532598,1.7582386306242073,0
sbt_20771,10.291242235383752,216.3,4.757855864717407,1.7582407832337772,0
smt_6110,15.414122726098423,327.6,4.705165667307211,2.722526777626104,0
smt_6802,14.938188774436023,327.6,4.559886683283279,2.7284735167368317,0
smt_24514,14.937652367634607,327.6,4.559722944943409,2.7283550960072627,0
smt_24513,14.937095337592238,327.6,4.559552911352942,2.7282322119103934,0
smt_19166,14.936658278367185,327.6,4.5594194988910814,2.728135858047766,0
smt_6414,14.936231672099112,327.6,4.55928927719753,2.728041862887584,0
smt_18852,14.935799938680653,327.6,4.55915749043976,2.7279467926024683,0
smt_6403,14.935320929282247,327.6,4.559011272674678,2.727841376217969,0
smt_1832,14.93490454226707,327.6,4.5588841704111935,2.727749796235331,0
smt_1831,14.93449890705914,327.6,4.558760350140152,2.7276606302046846,0
smt_1829,14.933702597558218,327.6,4.558517276421922,2.727485728212016,0
smt_1828,14.933126221954648,327.6,4.558341337592994,2.7273592496132166,0
smt_24515,14.840387319720934,327.6,4.5300327593775735,2.68051792298264,0
smt_6552,14.840011378905684,327.6,4.529918003328963,2.680433934423064,0
smt_6549,14.83951468660525,327.6,4.52976638785264,2.6803230341495072,0
smt_23959,14.839080999828102,327.6,4.529634004831533,2.68022626244298,0
smt_22744,14.838560758274753,327.6,4.529475200938569,2.680110251886946,0
smt_19175,14.838128105069424,327.6,4.5293431334155745,2.680013835214581,0
smt_19177,14.8376354977001,327.6,4.52919276486572,2.679904126569499,0
smt_19176,14.837117816780431,327.6,4.529034742606969,2.679788912773921,0
smt_19164,14.836892425768088,327.6,4.52896594193165,2.679738775657693,0
smt_32311,14.836504610790236,327.6,4.528847561291281,2.6796525440537553,0
smt_39119,14.836039471878781,327.6,4.528705577496575,2.6795491793159223,0
smt_32312,14.836017634168726,327.6,4.528698911528915,2.6795443282157367,0
smt_32310,14.835999826279735,327.6,4.5286934756653645,2.6795403721176356,0
smt_32309,14.83556944224186,327.6,4.528562100806428,2.6794447943188207,0
smt_32314,14.835372683611903,327.6,4.528502040174573,2.6794011176640242,0
smt_32313,14.835357742005483,327.6,4.528497479244653,2.679397801263921,0
smt_6350,14.762428720457113,327.6,4.506235873155406,2.665798717823907,0
smt_24517,14.760314139383146,327.6,4.505590396637102,2.6655560676772176,0
smt_24520,14.759666188124363,327.6,4.505392609317571,2.6654112378724473,0
smt_19116,14.759360252294536,327.6,4.5052992223121295,2.665342899382893,0
rbt_605806,3.991367704080962,90.3,4.420119273622328,2.0771475939040585,0
rbt_622714,3.931313115459493,90.3,4.353613638382606,2.0470267733248644,0
rbt_1607258,3.286612804354669,76.65,4.287818400984564,2.0162740751080745,0
rbt_627328,3.8381660031739457,90.3,4.250460690115112,2.000281642226231,0
smt_6066,6.961624992424958,163.8,4.250076307951744,2.399002846080303,0
smt_6062,6.961246549595833,163.8,4.249845268373524,2.398978612985007,0
smt_6719,6.960828649999522,163.8,4.249590140414848,2.3989534893895046,0
smt_6176,6.960357508812748,163.8,4.249302508432691,2.398915921295051,0
smt_6144,6.959917463011326,163.8,4.249033860202275,2.398887524458967,0
smt_6227,6.9594509430789735,163.8,4.2487490494987625,2.3988532110527925,0
smt_19063,6.959000186486525,163.8,4.248473862323886,2.398821920791676,0
smt_6092,6.9585534095831845,163.8,4.248201104751638,2.3987851452416993,0
smt_29474,6.958166341544991,163.8,4.247964799478017,2.398764937880242,0
smt_29473,6.957733038523643,163.8,4.247700267718951,2.3987369769428164,0
smt_19115,6.957299551534182,163.8,4.247435623647242,2.398698672794582,0
smt_24512,6.956957770508372,163.8,4.247226966122327,2.3986386835238873,0
sbt_5830,6.894647781470892,163.8,4.209186679774659,1.9802953961677057,0
smt_37840,6.866995772772293,163.8,4.192305111582596,2.3754676333524114,0
smt_6474,6.8666866179957164,163.8,4.192116372402757,2.3754496484294143,0
smt_19061,6.866303648315054,163.8,4.19188256917891,2.3754176351380702,0
smt_29476,6.865929498458185,163.8,4.191654150462872,2.375396215935798,0
smt_6594,6.8654726410158,163.8,4.191375238715384,2.375360670084552,0
smt_29475,6.865011999071098,163.8,4.191094016526922,2.3753183715957573,0
smt_19011,6.864614940203625,163.8,4.1908516118459245,2.375294352738338,0
smt_19014,6.864159794676982,163.8,4.190573745224042,2.375259866095732,0
rbt_621168,3.193165833449307,76.65,4.165904544617491,1.9580285918115614,0
rbt_1107330,3.7474307236699542,90.3,4.149978653012131,1.9529167358922879,0
rbt_605815,3.747199837736144,90.3,4.14972296537779,1.9514136024938538,0
rbt_621171,2.563373616565092,61.95,4.137810519071981,1.9439886259022738,0
rbt_3422597,3.7304745192074384,90.3,4.131201017948436,1.9428642809262016,0
rbt_606127,2.5444033924704743,61.95,4.107188688410774,1.9296350254211074,0
rbt_635966,2.5302915406910094,61.95,4.084409266652154,1.9191538019374794,0
rbt_1124041,3.6810446835407773,90.3,4.076461443566752,1.9170835745560775,0
rbt_605921,3.0329355514771144,76.65,3.9568630808572918,1.8599217651080622,0
sbt_14007,6.447428129699994,163.8,3.9361588093406557,1.8515062815033796,0
sbt_4118,11.266201438073452,286.65,3.9302987748381137,1.409458023845211,0
rbt_627336,3.5200930494623672,90.3,3.8982204312983026,1.8316259681792706,0
rbt_1627321,3.5067143795588236,90.3,3.8834046285258292,1.825312548384866,0
rbt_1607355,3.4924357849492047,90.3,3.8675922313944686,1.817818332026845,0
rbt_605902,2.3953934492382976,61.95,3.866656092394346,1.8169772327097886,0
sbt_35173,4.865885664751983,128.1,3.7985055930928833,1.7857334751732161,0
rbt_1607358,2.908118903537926,76.65,3.7940233575184936,1.7834103087555946,0
sbt_21952,8.198708928751957,216.3,3.7904340863393235,1.7835057740215994,0
sbt_20840,6.172998952571782,163.8,3.768619629164702,1.7733245124786496,0
sbt_6273,6.166563542257534,163.8,3.7646908072390315,1.7706431805985796,0
rbt_3405838,3.350719109041695,90.3,3.710652390965332,1.7459662541773457,0
rbt_622273,2.132251527351568,57.75,3.692210436972412,1.7378630661145456,0
rbt_1107341,2.2844926899332942,61.95,3.687639531772872,1.7346615806916983,0
rbt_638617,2.2753298071399404,61.95,3.672848760516449,1.7276572375736305,0
rbt_605828,3.3103822556406897,90.3,3.665982564386146,1.7250795548657394,0
rbt_1607292,3.2465878409984983,90.3,3.59533537209136,1.690374890172154,0
smt_6536,10.30499035489479,286.65,3.5949730873520984,2.142763651414999,0
smt_6703,10.304428229491409,286.65,3.594776985693846,2.142645704648442,0
smt_6514,10.30387701114691,286.65,3.594584689044797,2.1425302361540397,0
smt_6984,10.303792872182898,286.65,3.5945553365368568,2.142512627360574,0
smt_5854,10.302936821975427,286.65,3.5942566970086967,2.142333720781457,0
smt_5855,10.30229546818507,286.65,3.594032955934091,2.1421999818482402,0
smt_5657,10.301769812891468,286.65,3.5938495771468584,2.1420905598453728,0
smt_21743,10.301215649068016,286.65,3.5936562529454097,2.1419753898046867,0
smt_22741,10.30064784211975,286.65,3.5934581692376595,2.141857583082622,0
smt_6098,10.300196744696262,286.65,3.5933008005219826,2.1417641344987826,0
smt_19120,10.299673638142952,286.65,3.5931183108818954,2.1416559398900676,0
smt_22740,10.29915589876212,286.65,3.5929376936201365,2.141549033219218,0
smt_22738,10.286238158325194,286.65,3.5884312430926895,2.1364233351886734,0
smt_6754,10.285765820603908,286.65,3.5882664645399998,2.1363243281974245,0
smt_6567,10.28528567316709,286.65,3.5880989615095378,2.1362238256035284,0
smt_6746,10.284808376538281,286.65,3.587932453004808,2.136124061209935,0
smt_6812,10.284339322876853,286.65,3.5877688201210027,2.1360261573648787,0
rbt_1635060,2.2030752043461876,61.95,3.5562150191221753,1.6721144325312716,0
rbt_1626490,3.211036917983431,90.3,3.5559655791621605,2.6931456962449523,0
sbt_37156,5.803977337469275,163.8,3.5433317078566997,1.6648412619057806,0
rbt_605867,3.193207165416336,90.3,3.536220559708013,1.6627656123271901,0
sbt_4615,5.727811706796537,163.8,3.4968325438318293,1.6461055941283735,0
sbt_3373,5.727810487159237,163.8,3.4968317992425133,1.6461047921635565,0
sbt_20793,5.727809369127131,163.8,3.49683111668323,1.6461040625457024,0
sbt_4010,5.727807638585033,163.8,3.4968300601862228,1.6461029431821907,0
sbt_28804,5.727806069737572,163.8,3.49682910240389,1.6461019383842619,0
rbt_605812,3.118859153917797,90.3,3.453886106221259,1.6253407998026994,0
rbt_632613,3.115639522348326,90.3,3.450320622755622,1.6227344020766912,0
rbt_622713,3.0993683386125466,90.3,3.432301593147892,1.6128235116091039,0
rbt_606120,2.116177847371818,61.95,3.4159448706566877,1.604561790520154,0
sbt_37537,7.331188190864606,216.3,3.389361160825061,1.292656282895859,0
sbt_37545,7.331179526601648,216.3,3.3893571551556394,1.2926568776725178,0
sbt_37546,7.331162770598575,216.3,3.3893494085060447,1.2926556370752775,0
sbt_26269,7.329973015468256,216.3,3.388799359902106,1.5934195639853366,0
sbt_37539,7.324108911489518,216.3,3.3860882623622364,1.753457305216102,0
sbt_37538,7.324103371855312,216.3,3.386085701273838,1.7534578311498692,0
rbt_1132019,3.0182897491620078,90.3,3.342513564963464,1.5715387488573629,0
rbt_605863,3.003679691301678,90.3,3.3263340988944385,1.564372513773854,0
rbt_634166,2.5238496539298554,76.65,3.2926936124329487,1.5472620810873312,0
rbt_1138614,2.0265458829631116,61.95,3.2712605051866204,1.5380384313811026,0
rbt_605803,2.9168940510896633,90.3,3.2302259701989624,1.5184167731516032,0
rbt_605834,2.896796424830237,90.3,3.2079694627134407,1.510133761630881,0
smt_29484,5.240828180469053,163.8,3.19952880370516,1.585517033129622,0
smt_22951,5.2408146562372,163.8,3.1995205471533574,1.58550874141158,0
smt_19381,5.239474679092099,163.8,3.1987024902882166,1.584688529542681,0
smt_18804,5.238777148358573,163.8,3.1982766473495556,1.5842625688086482,0
smt_19380,5.237977856489122,163.8,3.197788679175288,1.583775315870737,0
rbt_605904,1.9808016191732842,61.95,3.197419885671161,1.501390677906672,0
smt_5349,5.237337507871303,163.8,3.1973977459531766,1.5833856135917328,0
smt_18803,5.236687155075216,163.8,3.1970007051741236,1.5829904245628474,0
smt_13454,5.236023130656474,163.8,3.196595317861095,1.5825875559833913,0
smt_19377,5.235233858711775,163.8,3.196113466857005,1.582109527725663,0
smt_29411,5.234241682645664,163.8,3.1955077427629206,1.5815098928396105,0
smt_8954,5.233632136060288,163.8,3.19513561420042,1.5811422177601324,0
smt_5584,5.232921636581009,163.8,3.1947018538345597,1.5807143361679812,0
rbt_605810,2.443725462230365,76.65,3.188161072707586,1.4983906735885917,0
rbt_605864,2.8719002155300313,90.3,3.1803989097785506,1.4957488358262039,0
smt_37837,6.867515712605044,216.3,3.1749957062436636,1.7989318344718181,0
smt_37841,6.867192325778112,216.3,3.1748461977707407,1.7989016538950093,0
rbt_609682,2.421227654734028,76.65,3.1588097256804017,1.4859320073628368,0
rbt_622703,1.9427327010190285,61.95,3.1359688474883427,2.375476636809916,0
rbt_605835,2.831016121669086,90.3,3.135123058326784,1.4758261839368991,0
smt_7052,5.134315389814992,163.8,3.1345026799847324,1.7177839528523526,0
sbt_14006,5.124466600829244,163.8,3.128489988296242,1.4710907964838704,0
sbt_27416,6.67225907586367,216.3,3.084724491846357,1.4505669478024386,0
sbt_15213,6.672259029776147,216.3,3.0847244705391343,1.4505669378571486,0
rbt_606128,2.3514083884772847,76.65,3.0677213156911733,1.4416473586566736,0
rbt_1607257,2.7452317886826916,90.3,3.040123796990799,1.4289889019835496,0
rbt_607385,2.7400740484223056,90.3,3.034412013756706,1.427128917892552,0
rbt_3405845,2.7312114091648994,90.3,3.0245973523420813,1.4237135637816998,0
rbt_633056,2.7274679992569455,90.3,3.020451826419652,1.4200123049931193,0
rbt_606141,2.7247616040026337,90.3,3.017454710966372,1.4203239123808233,0
rbt_623015,2.717236661104678,90.3,3.009121440868968,2.2791366467142877,0
sbt_34389,3.838164740343983,128.1,2.996225402298191,2.305274035955271,0
rbt_605982,2.6623392195670803,90.3,2.9483269319679737,1.387012334510614,0
rbt_1606000,2.6608574305748713,90.3,2.946685969628872,1.3853100429113674,0
smt_37855,6.366703286574652,216.3,2.943459679415003,1.5564624470482238,0
smt_37854,6.366370330110013,216.3,2.943305746699035,1.556487460843493,0
smt_37853,6.366063994053253,216.3,2.9431641211526824,1.5565178983452783,0
smt_37852,6.365749619547436,216.3,2.943018779263724,1.5565436162650146,0
smt_37851,6.365453570726842,216.3,2.942881909721147,1.5565745432110247,0
smt_37850,6.365145694380766,216.3,2.9427395720669285,1.5566040137022814,0
smt_37849,6.36483913297421,216.3,2.9425978423366668,1.5566363940189303,0
smt_37848,6.364521682224431,216.3,2.9424510782359827,1.5566674708707062,0
smt_37847,6.364205487649647,216.3,2.942304894891191,1.5566779086111318,0
smt_37846,6.363983287889141,216.3,2.9422021673088956,1.5567185086000688,0
smt_37845,6.3636800448346635,216.3,2.9420619717219894,1.556753833890841,0
smt_38000,6.3633568802450275,216.3,2.941912565994002,1.5567757693192554,0
smt_38002,6.363083246120338,216.3,2.9417860592327036,1.5567431387750297,0
smt_38001,6.363076150207526,216.3,2.941782778644256,1.5567449823288158,0
smt_37843,6.36306538074079,216.3,2.9417777996952332,1.5568115286320614,0
smt_37842,6.362767432695975,216.3,2.941640052101699,1.5568097630282567,0
smt_37838,6.362613472144863,216.3,2.9415688729287393,1.5568473454361655,0
rbt_1629639,2.6486761483135908,90.3,2.9331961775344304,1.3780828691661589,0
sbt_3952,4.790756541084915,163.8,2.924759793092133,1.3762913261542191,0
sbt_4120,4.790755107396585,163.8,2.9247589178245326,1.376290402025165,0
sbt_20855,4.79075371160838,163.8,2.924758065694981,1.3762895086196194,0
sbt_20854,4.7907523875750675,163.8,2.924757257371836,1.3762886666738685,0
rbt_635963,1.8102296622299927,61.95,2.9220817792251697,1.3725588453582063,0
smt_25186,4.735255929642001,163.8,2.8908766359230773,1.5896639019269703,0
rbt_626481,2.603942303416715,90.3,2.883657035898909,1.3554139691898601,0
rbt_1607306,2.195974155836184,76.65,2.864936928683867,1.347009797829174,0
rbt_605901,2.578363302426964,90.3,2.8553303459877784,1.3416482332467892,0
rbt_605820,2.1854532184855255,76.65,2.8512109830209074,1.3409374427062024,0
rbt_3405847,2.57336766299787,90.3,2.8497980764096016,1.341293352963518,0
rbt_1607289,2.170459139605452,76.65,2.8316492362758665,1.3306556964936036,0
sbt_34000,6.124682491267451,216.3,2.8315684194486592,1.330863655215697,0
sbt_20828,4.5960563758644835,163.8,2.8058952233604906,1.3187989542200074,0
rbt_1609690,2.495519118500286,90.3,2.76358706367695,1.2984929092132524,0
sbt_34382,3.514187737423821,128.1,2.743315954273084,1.2891465662584505,0
rbt_1625170,2.475409599846843,90.3,2.7413173863198703,1.288131640638926,0
rbt_605821,3.4999448940973434,128.1,2.7321974192797374,1.2837329618164983,0
sbt_35105,3.4924354194937623,128.1,2.7263352220872465,1.2814126288309018,0
smt_37856,5.872174825122609,216.3,2.7148288604357877,1.4615946472688057,0
smt_15243,4.444528559894037,163.8,2.7133873992027087,1.5639083166425982,0
smt_26472,4.444124042301783,163.8,2.713140440965679,1.5639109092272865,0
smt_14780,4.443665807226196,163.8,2.712860688172281,1.56390488050034,0
smt_14754,4.4432088191648,163.8,2.712581696681807,1.5638997044613963,0
smt_14729,4.4427543747188984,163.8,2.7123042580701453,1.5681738557615257,0
smt_21229,4.442293315719498,163.8,2.7120227812695346,1.5681643444478315,0
smt_26474,4.441859095078562,163.8,2.711757689303151,1.5681519360502518,0
smt_22453,4.441476313007797,163.8,2.7115240006152606,1.5681621282810394,0
smt_14544,4.4410167727717385,163.8,2.7112434510205974,1.568159902434483,0
smt_14113,4.440558083943138,163.8,2.7109634212107068,1.568166527706197,0
smt_22508,4.4400551710533485,163.8,2.7106563925844616,1.5681563668324496,0
smt_14452,4.439612072032383,163.8,2.7103858803616503,1.5681449966447847,0
smt_30311,4.439240441838039,163.8,2.710158999901122,1.5681620595254797,0
smt_26478,4.438782393812876,163.8,2.709879361302122,1.5681507852723078,0
rbt_605988,2.4440131605086903,90.3,2.706548350507963,1.27364342219575,0
smt_6512,7.685534509617736,286.65,2.681156291511508,1.6145697043144949,0
smt_6425,7.6851650816815305,286.65,2.6810274138083137,1.61450801211873,0
smt_6930,7.6845992510428385,286.65,2.6808300195509642,1.6144087270304002,0
rbt_605804,1.6565256696571624,61.95,2.67397202527387,1.2566171928727388,0
sbt_6048,4.331625420913866,163.8,2.644459963927879,1.244360760877814,0
smt_856,4.3265304756965435,163.8,2.641349496762236,1.530465942048508,0
smt_15622,4.326028239949604,163.8,2.6410428815321145,1.530427941169485,0
smt_23196,4.325749245163195,163.8,2.640872555044685,1.5304325818504203,0
smt_15581,4.325450252288116,163.8,2.640690019711914,1.530438655596902,0
smt_15568,4.3251267258679045,163.8,2.640492506634862,1.5304392476728033,0
rbt_605829,2.3817969232571055,90.3,2.6376488629646793,1.2399574356883014,0
smt_22686,7.5466300020266965,286.65,2.632698413405441,1.6550663004223531,0
smt_6239,7.546193996409146,286.65,2.632546309579329,1.654988337129051,0
smt_23961,7.545768479292279,286.65,2.632397864745257,1.6549126458398826,0
smt_29407,7.545335694770447,286.65,2.6322468846225178,1.6548351618489268,0
smt_6278,7.544948133362247,286.65,2.632111680921768,1.654767291174106,0
smt_6630,7.544496332006893,286.65,2.6319540666341856,1.6546874108153753,0
smt_19070,7.544042455898439,286.65,2.6317957285534415,1.654607331634847,0
smt_6639,7.54358892564441,286.65,2.631637511126604,1.6545271011383045,0
sbt_15045,5.692100061110145,216.3,2.63157654235328,1.2377333043912817,0
smt_19117,7.543165649885714,286.65,2.631489848207122,1.6544524017647193,0
smt_21514,7.525963711212489,286.65,2.6254888230289515,1.6493367348379717,0
smt_5615,7.525524426149625,286.65,2.6253355751437732,1.6492551526836738,0
smt_18742,7.525182366361154,286.65,2.625216245023951,1.6491944989030738,0
smt_6270,7.524645231133132,286.65,2.625028861375591,1.6490951315402904,0
smt_5967,7.52422752956796,286.65,2.62488314305528,1.649019802769099,0
smt_5772,7.52373487032987,286.65,2.62471127518921,1.6489301806926502,0
smt_6158,7.523247706882166,286.65,2.624541324570789,1.648841115835226,0
smt_6263,7.522825873398921,286.65,2.6243941647999027,1.6487659444557983,0
smt_6384,7.522302822064602,286.65,2.624211694423374,1.648671440653926,0
smt_22684,7.52179113021185,286.65,2.6240331868870923,1.6485782548099666,0
smt_22685,7.521373700452431,286.65,2.6238875633882546,1.6485035549215787,0
smt_29447,7.520936123059267,286.65,2.623734911236444,1.6484255608257914,0
smt_19065,7.520467430266125,286.65,2.6235714042442444,1.6483425832403176,0
smt_24385,7.5199379357447675,286.65,2.623386686113647,1.6482480780249336,0
rbt_1607316,2.355549791808587,90.3,2.6085822722132748,1.976581801173592,0
rbt_1107342,1.6157489446401907,61.95,2.608150031703294,1.2262581307349831,0
smt_29448,7.471217105843649,286.65,2.6063900596000873,1.6366867737515796,0
smt_6824,7.470793537261576,286.65,2.606242294526976,1.6366056893790784,0
smt_6855,7.470339437303146,286.65,2.6060838783544904,1.636519309071308,0
smt_19062,7.469809235427476,286.65,2.605898913458042,1.6364171118816921,0
smt_7054,7.469387883305241,286.65,2.60575192161355,1.6363368527426678,0
smt_6446,7.468957445876387,286.65,2.60560176029178,1.6362550514077607,0
smt_39006,7.468516510894064,286.65,2.6054479368198376,1.6361709603951962,0
smt_39008,7.468118139763294,286.65,2.6053089620663856,1.6360921065281946,0
smt_39007,7.468101350839197,286.65,2.6053031051244364,1.6360921782747206,0
smt_6122,7.467719101620719,286.65,2.6051697546208685,1.6360208256155098,0
smt_18741,7.467236808148619,286.65,2.6050015029299214,1.6359295258240902,0
smt_5938,7.46679005670924,286.65,2.6048456503433592,1.6358461227551098,0
smt_5946,7.466274270837848,286.65,2.6046657145780037,1.635748887004542,0
smt_37925,5.612099831011437,216.3,2.5945907679202205,1.4028552067837212,0
smt_37924,5.611951175012218,216.3,2.5945220411522043,1.4029144296031477,0
smt_37923,5.611633134301888,216.3,2.5943750043004568,1.402952368500314,0
smt_37864,5.611319738692852,216.3,2.5942301149758906,1.4029507908988004,0
smt_37863,5.61117130564829,216.3,2.5941614912844613,1.4029692012035138,0
smt_37862,5.611023056579838,216.3,2.5940929526490235,1.4030114773062952,0
smt_37861,5.610778244890035,216.3,2.59397977110034,1.403055031638507,0
smt_37860,5.610481970194206,216.3,2.593842797130932,1.4030966826024578,0
smt_37859,5.610169665657717,216.3,2.593698412231954,1.4031169090297169,0
smt_37858,5.609937047842567,216.3,2.593590868165773,1.4031691757740683,0
smt_37831,5.609615511243152,216.3,2.5934422150916094,1.4031688144255403,0
smt_37898,5.595625449036178,216.3,2.58697431763115,1.3937081214119438,0
smt_37897,5.595267090999796,216.3,2.5868086412389255,1.3937251852664685,0
smt_37896,5.594955828134123,216.3,2.586664737926085,1.393753135254509,0
smt_37895,5.59462206651002,216.3,2.586510432968109,1.393777496829828,0
smt_37894,5.5942937524727325,216.3,2.586358646543103,1.3937992597184776,0
smt_37893,5.5939833266328085,216.3,2.5862151302047196,1.3938263992596964,0
smt_37892,5.593659396479092,216.3,2.5860653705404952,1.3938497963539704,0
smt_37891,5.5933470591568915,216.3,2.5859209704839996,1.393879081786566,0
smt_37890,5.5930150395434275,216.3,2.5857674708938636,1.3939305590336313,0
smt_37889,5.592566592267118,216.3,2.5855601443675993,1.3939212026463128,0
smt_37888,5.592341310176004,216.3,2.585455991759595,1.3939381147456642,0
smt_37887,5.592125684545261,216.3,2.5853563035345632,1.3939812955849324,0
smt_37886,5.59179210060613,216.3,2.5852020807240543,1.394007425918027,0
smt_37885,5.591470797776483,216.3,2.5850535357265296,1.394036138391062,0
smt_37884,5.591146323923213,216.3,2.584903524698665,1.3940650337480145,0
smt_37883,5.5908208732896325,216.3,2.584753062084897,1.3940962599906552,0
smt_37882,5.590485762805287,216.3,2.5845981335207058,1.3941242532249394,0
smt_37881,5.590161858799678,216.3,2.5844483859452967,1.3941550445094242,0
smt_37880,5.589833240262459,216.3,2.584296458743624,1.394181314314225,0
smt_37879,5.589524417489213,216.3,2.5841536835363903,1.3942173104239177,0
smt_37878,5.589184028199989,216.3,2.5839963144706375,1.394245318639179,0
smt_37877,5.58886395346791,216.3,2.5838483372482246,1.3942787922986792,0
smt_37876,5.588532257426809,216.3,2.5836949872523385,1.3943115312492556,0
smt_37875,5.588199160237401,216.3,2.5835409894763757,1.3943447674376925,0
smt_37874,5.587864857392347,216.3,2.5833864343006687,1.3943760800820275,0
smt_37873,5.58754027390929,216.3,2.5832363725886682,1.3944037151247828,0
smt_37945,5.587239055280992,216.3,2.5830971129361955,1.3944150033937799,0
smt_37944,5.587024384026472,216.3,2.582997865939192,1.3944454353806635,0
smt_37943,5.586773092443835,216.3,2.5828816886009407,1.39448163740398,0
smt_37942,5.586477635494166,216.3,2.582745092692633,1.3945121328572867,0
smt_37941,5.5861847607240325,216.3,2.582609690579765,1.3945426189938814,0
smt_37940,5.5858946878927025,216.3,2.5824755838616285,1.3945751480756783,0
smt_37939,5.585598592455414,216.3,2.5823386927671814,1.3946086941534082,0
smt_37938,5.585296341981303,216.3,2.582198956070875,1.3946426287251257,0
smt_37937,5.584990662807436,216.3,2.5820576342151806,1.3946752459052647,0
smt_37936,5.584690320333951,216.3,2.5819187796273466,1.3947088633182079,0
smt_37935,5.584389932327021,216.3,2.5817799039884513,1.3947360427719058,0
smt_37934,5.584118299974862,216.3,2.581654322688332,1.3947729468975512,0
smt_37933,5.583821542502375,216.3,2.581517125521209,1.3948074955799206,0
smt_37932,5.583523200537755,216.3,2.581379195810335,1.3948421893697827,0
smt_23147,4.223164962901396,163.8,2.57824478809609,1.505130811098461,0
smt_16038,4.222879435782926,163.8,2.5780704736159494,1.5052296541943067,0
sbt_22669,5.5515454313711405,216.3,2.566595206366685,1.206591206832605,0
rbt_3405987,1.5897708603530516,61.95,2.566216078051738,1.208005838396057,0
rbt_1132012,2.3074948762300607,90.3,2.555365311439713,1.2009680455577276,0
smt_37986,5.526395539371873,216.3,2.5549678869033166,1.4138540971443225,0
smt_37987,5.526163498299784,216.3,2.5548606094774775,1.4138658250652263,0
smt_37993,5.525867109897644,216.3,2.554723582939271,1.413848157692666,0
smt_37920,5.5257189539298395,216.3,2.554655087346204,1.4138803436513623,0
smt_37919,5.5253594113999585,216.3,2.5544888633379372,1.4138842892076735,0
smt_37918,5.525006579513219,216.3,2.554325741799916,1.4138872537164895,0
smt_37917,5.5246691543881035,216.3,2.554169743129035,1.4138940723423399,0
smt_37916,5.524321596187625,216.3,2.5540090597261327,1.4138992340557976,0
smt_37915,5.523978865152352,216.3,2.553850608022354,1.4138923042801637,0
smt_37914,5.5237243280319825,216.3,2.5537329302043377,1.4139087792757081,0
smt_37913,5.523391166273971,216.3,2.553578902576963,1.413917981027576,0
smt_37912,5.523040677634647,216.3,2.5534168643710804,1.4139236370471366,0
smt_40685,5.5227013311202695,216.3,2.5532599774018814,1.4139281775748078,0
smt_37911,5.5223799860404075,216.3,2.5531114128712007,1.4138896595634096,0
smt_37910,5.522361152669445,216.3,2.553102705811116,1.4139397871241604,0
smt_37909,5.5220163870207895,216.3,2.552943313463148,1.4139470666539349,0
smt_37908,5.52167851849739,216.3,2.5527871097999957,1.413957974390608,0
smt_40683,5.521325332778548,216.3,2.5526238246780153,1.4139634110533417,0
smt_37906,5.520997143746335,216.3,2.552472096045462,1.4139742626142071,0
smt_37905,5.520657181485507,216.3,2.5523149244038406,1.413980257623856,0
rbt_1607268,1.9562811974200602,76.65,2.5522259587998173,1.199345262832084,0
smt_37904,5.520340783818782,216.3,2.55216864716541,1.4139897438179245,0
smt_37903,5.520023531710041,216.3,2.5520219749006197,1.4139871807069213,0
sbt_35588,5.506616820587827,216.3,2.5458237728099062,1.1964142692540891,0
rbt_605823,2.297208956944469,90.3,2.543974481666079,1.1962550257909286,0
smt_13546,4.166535663794647,163.8,2.543672566419198,1.4882597238210813,0
smt_21225,4.166252370043146,163.8,2.543499615410956,1.4882949531366096,0
smt_13930,4.165742941099905,163.8,2.5431886087301008,1.488291261583936,0
smt_21226,4.165237502077123,163.8,2.542880037898122,1.4882692337768193,0
smt_13280,4.164851013480871,163.8,2.542644086374158,1.4882655414607546,0
smt_14437,4.164483249892986,163.8,2.5424195664792344,1.4882663694694036,0
smt_13955,4.164112614672115,163.8,2.5421932934506195,1.4882682987673108,0
smt_26469,4.163737298593378,163.8,2.5419641627554195,1.4882617148552113,0
smt_20808,4.163409432773033,163.8,2.541764000471937,1.4882667257601312,0
smt_23095,4.1630662543235735,163.8,2.541554489819031,1.4882388122640366,0
smt_20807,4.162893248885668,163.8,2.54144886989357,1.4882754689687523,0
smt_13717,4.162528623712254,163.8,2.541226266002597,1.4882660795915899,0
smt_37963,5.478087441558286,216.3,2.5326340460278716,1.392432806369862,0
smt_37983,5.477645046764004,216.3,2.5324295176902467,1.3924342097147333,0
smt_37984,5.477195577332779,216.3,2.5322217186004528,1.3924342552237767,0
smt_37985,5.476753571665676,216.3,2.532017370164436,1.3924348703802478,0
smt_37947,5.476318923516335,216.3,2.5318164232622906,1.3924318933224298,0
smt_37948,5.475921481122925,216.3,2.531632677356877,1.392435835736027,0
sbt_21281,4.123079372046269,163.8,2.517142473776721,1.1826700575205613,0
smt_14797,4.116871796069005,163.8,2.5133527448528725,1.471790781488408,0
smt_23041,4.116506598698082,163.8,2.5131297916349706,1.471784422443618,0
smt_14823,4.11613669588523,163.8,2.5129039657418986,1.4717786705188016,0
smt_13752,4.115761631146633,163.8,2.5126749884900077,1.4717141648176228,0
smt_23225,4.098972867175241,163.8,2.5024254378359223,1.4652096678273885,0
smt_21220,4.098557702447015,163.8,2.502171979515882,1.465198052227161,0
smt_14845,4.098124224802522,163.8,2.5019073411492805,1.4651864326098705,0
smt_26425,4.097675721248572,163.8,2.5016335294557823,1.465172835002605,0
smt_20810,4.097230323574275,163.8,2.5013616139037085,1.4651502608982971,0
smt_26429,4.096855457770922,163.8,2.501132758101906,1.46514054392378,0
smt_26430,4.096483854471139,163.8,2.500905894060524,1.4651317971033448,0
smt_21222,4.080049398361773,163.8,2.4908726485725103,1.4591292284769384,0
smt_14301,4.079759110782618,163.8,2.490695427828216,1.4591283333814093,0
smt_23277,4.079392558878071,163.8,2.49047164766671,1.4591101778010576,0
smt_26427,4.079047983083615,163.8,2.4902612839338305,1.4590998117730958,0
smt_20812,4.078685046373667,163.8,2.490039710850834,1.459086820978768,0
smt_15154,4.0783215347667765,163.8,2.4898177867929037,1.459071244413809,0
smt_14674,4.0779789259281864,163.8,2.4896086238877815,1.459071136573139,0
rbt_605989,2.2442793485166477,90.3,2.4853591899409166,1.168046618737283,0
rbt_1121173,2.2406654892801843,90.3,2.4813571309858076,1.1670587164087622,0
rbt_605807,2.2349097434826133,90.3,2.4749831046319084,1.1643052309246513,0
rbt_606130,1.8822468636411833,76.65,2.455638439192672,1.153842479742286,0
sbt_3491,4.016177505492719,163.8,2.4518788189821237,1.152484222033817,0
rbt_637399,1.5100211135515074,61.95,2.43748363769412,1.1453839695603547,0
sbt_21191,3.9838895708509785,163.8,2.432167015171537,1.1434385262980375,0
sbt_26310,3.931312705799594,163.8,2.400068806959459,1.12848886305348,0
rbt_637705,2.154654373239685,90.3,2.386106725625343,1.807424519890984,0
rbt_1105833,2.148015981238725,90.3,2.3787552394670266,1.1181303283649289,0
smt_29426,5.135037561694344,216.3,2.374034933746807,1.301170213475068,0
rbt_1607276,2.139018956993256,90.3,2.3687917574676147,1.1130211394501137,0
smt_37960,5.07160265736076,216.3,2.3447076548131114,1.320465183497329,0
smt_37962,5.0712235665395236,216.3,2.3445323932221562,1.320468338169652,0
smt_37981,5.05480516202183,216.3,2.336941822478886,1.298535187514929,0
smt_37951,5.054449608030211,216.3,2.336777442455021,1.2985377768152637,0
smt_37952,5.054093561171039,216.3,2.3366128345682102,1.2985523301873514,0
smt_37953,5.053655434178898,216.3,2.336410279324502,1.2985543376862745,0
smt_37954,5.053233538386138,216.3,2.336215228102699,1.3005882515035605,0
smt_37955,5.052775897694647,216.3,2.3360036512689075,1.300580744809941,0
smt_37956,5.052408076725227,216.3,2.3358335999654307,1.3005952625975346,0
smt_37957,5.0519731924440014,216.3,2.3356325438945915,1.3006012206781268,0
smt_37958,5.051540962087883,216.3,2.335432714788665,1.3006093609344556,0
smt_37959,5.051100671679689,216.3,2.335229159352607,1.3006158617520158,0
rbt_1607319,2.1059602040937233,90.3,2.3321818428501917,1.6565755581950423,0
rbt_622709,2.1033776044702583,90.3,2.3293218211187803,1.0950630175780665,0
rbt_1607328,2.101453048386898,90.3,2.3271905297750806,1.0942360766070816,0
rbt_607366,2.100269819959809,90.3,2.32588019929104,1.092988144729759,0
sbt_21953,3.747430976434102,163.8,2.287808898921918,1.0766079616484052,0
sbt_21849,3.7474309160027146,163.8,2.2878088620285193,1.0766079440679033,0
sbt_21968,3.747430842799717,163.8,2.287808817338045,1.0766079228196748,0
smt_37979,4.942369469277684,216.3,2.2849604573637,1.2857672615406426,0
smt_37980,4.94198777543239,216.3,2.2847839923404485,1.2857466213003659,0
rbt_1633892,2.0296868393164926,90.3,2.2477152151899142,1.0563858348078903,0
sbt_21137,3.6810420977413854,163.8,2.2472784479495638,1.0568521483880662,0
rbt_1134165,2.0251605672441864,90.3,2.2427027322748465,1.0552377470217194,0
rbt_1131858,2.0238931709324164,90.3,2.2412991926161867,1.0542817907717197,0
smt_6074,6.419614654551599,286.65,2.2395306661613814,1.3359322775338411,0
smt_6082,6.419167977444598,286.65,2.2393748395062265,1.335868236882743,0
smt_6649,6.418727839247867,286.65,2.2392212939989076,1.3358052774425744,0
smt_29408,6.41829757365305,286.65,2.2390711926227285,1.3357443417398585,0
smt_6422,6.417866463241376,286.65,2.2389207965258597,1.3356835873787227,0
smt_22683,6.417433208544448,286.65,2.2387696523790157,1.3356226604075196,0
smt_22793,6.40045781926179,286.65,2.2328476606529883,1.3231104069466668,0
smt_22790,6.400004668491675,286.65,2.2326895756119574,1.323040780788703,0
smt_29449,6.399730782584271,286.65,2.232594028461284,1.3238295457609266,0
smt_6370,6.399567289398289,286.65,2.23253699263851,1.3229742961164603,0
smt_6401,6.3992947721571145,286.65,2.232441922957305,1.3237655604380196,0
smt_29409,6.399127703018049,286.65,2.2323836396365078,1.3229082429907366,0
smt_21348,6.3988563593775005,286.65,2.2322889793746734,1.3237152517344597,0
smt_5650,6.398667237204534,286.65,2.2322230026877845,1.32283856836018,0
smt_6094,6.398212722058961,286.65,2.232064441674154,1.3227672688670646,0
smt_29477,6.397863759260341,286.65,2.231942703387525,1.3227171577534664,0
smt_29450,6.397437348525512,286.65,2.2317939468081325,1.3226547183788617,0
smt_6231,6.396968616450928,286.65,2.2316304261123068,1.3225841901108828,0
smt_6340,6.396529427922322,286.65,2.2314772119038278,1.3225195716014635,0
rbt_1607353,2.0060941001268446,90.3,2.221588150749551,1.044098028544192,0
sbt_34390,3.6262852577553333,163.8,2.2138493637089947,1.6769794530150481,0
smt_6581,6.338427360890866,286.65,2.2112078705357985,1.2991763226179007,0
smt_6701,6.337984974089598,286.65,2.2110535405859406,1.2991145517797664,0
smt_21959,6.33749924203975,286.65,2.210884089321385,1.2990434530334665,0
smt_19219,6.329528622941635,286.65,2.208103479135404,1.2889821123078873,0
smt_5952,6.329058284855622,286.65,2.2079393981704594,1.2889061440662914,0
smt_29478,6.3285678729808605,286.65,2.2077683143139235,1.2888255374538506,0
smt_22841,6.328135829831067,286.65,2.2076175928243735,1.2887566517969566,0
smt_6660,6.327669201443741,286.65,2.2074548060156083,1.2886812935911136,0
smt_22845,6.291895157752895,286.65,2.1949747628651304,1.2676452153377185,0
smt_18913,6.291349103862003,286.65,2.1947842678744127,1.2675554394263533,0
smt_5786,6.290819955871944,286.65,2.194599670633855,1.26746763039071,0
smt_29479,6.290364487971163,286.65,2.194440777244432,1.267393867675431,0
smt_19224,6.289896471279561,286.65,2.1942775061153186,1.267318585836693,0
smt_25183,4.734623275102397,216.3,2.188915060149051,1.2035317306254303,0
smt_25117,4.733977355729505,216.3,2.1886164381551105,1.2032345218321698,0
smt_25116,4.73331347942558,216.3,2.1883095142975404,1.2029293882872538,0
smt_25115,4.732794130946658,216.3,2.188069408666971,1.2026909229096565,0
smt_25114,4.732338376194738,216.3,2.187858703742366,1.2024818312590986,0
smt_25113,4.731806571481477,216.3,2.1876128393349408,1.2022380554156864,0
smt_25112,4.731244886134827,216.3,2.1873531604876684,1.201980824287854,0
smt_25111,4.730876937147317,216.3,2.18718304999876,1.2018124523525362,0
smt_25110,4.730611191514202,216.3,2.187060190251596,1.2016909148420527,0
smt_25109,4.729910355165074,216.3,2.186736178994486,1.2013706595298503,0
smt_25108,4.729376847103195,216.3,2.1864895270934785,1.201127128917756,0
smt_25107,4.728658239077373,216.3,2.186157299619682,1.2007994651776113,0
smt_25106,4.728030915378014,216.3,2.185867274793349,1.200513763036795,0
smt_25105,4.727389278482116,216.3,2.1855706326778157,1.2002218701204674,0
smt_29427,4.726747424969271,216.3,2.185273890415752,1.1999302116489874,0
smt_6407,4.725477244419735,216.3,2.184686659463585,1.1993540279599135,0
smt_22794,4.724845183763535,216.3,2.1843944446433357,1.199067801454483,0
smt_6477,4.724147730552262,216.3,2.184071997481397,1.198752342811286,0
smt_6641,4.723241806537163,216.3,2.1836531699200936,1.1983431916529754,0
smt_6157,4.722605819959952,216.3,2.1833591400647023,1.198056361148672,0
smt_6694,4.72188764717852,216.3,2.1830271138134627,1.1977328693054954,0
sbt_20633,3.4718745976599634,163.8,2.119581561452969,1.3988425085130272,0
smt_37973,4.581943065274508,216.3,2.118327815660891,1.2199356319215686,0
smt_37991,4.581779200706632,216.3,2.118252057654476,1.2199471875115675,0
smt_37974,4.581548270905423,216.3,2.118145293992336,1.2199736180615115,0
smt_37990,4.581154681800242,216.3,2.117963329542414,1.219975047855738,0
smt_37975,4.580790795335805,216.3,2.117795097242628,1.2199852191350746,0
smt_37976,4.580397146943468,216.3,2.117613105383018,1.2199912702879696,0
smt_37977,4.580009075270885,216.3,2.1174336917572285,1.2199957976260205,0
smt_37978,4.5796398843897785,216.3,2.117263007115015,1.2200093881029954,0
smt_37970,4.539850555910729,216.3,2.098867570924979,1.2103286105987536,0
smt_37971,4.539334931751114,216.3,2.0986291871248794,1.2102982699865963,0
smt_37972,4.539068481165312,216.3,2.09850600146339,1.2103163328517783,0
sbt_4619,4.538959727300318,216.3,2.0984557222840117,0.9863261802749158,0
smt_37989,4.538688277383168,216.3,2.0983302253274005,1.2103986036169367,0
smt_37964,4.438405198936027,216.3,2.0519672671918756,1.1875087472123111,0
smt_37965,4.4370614192544515,216.3,2.051346009826376,1.1875195002978847,0
smt_37994,4.436886098652868,216.3,2.051264955456712,1.1874972987222696,0
smt_37995,4.4368819516582,216.3,2.0512630382146093,1.1874976429349673,0
smt_37996,4.436876958457811,216.3,2.051260729753958,1.1875401250555573,0
smt_37966,4.436573298159302,216.3,2.0511203412664365,1.187554142997537,0
smt_37967,4.436202177733814,216.3,2.0509487645556237,1.1875613784478751,0
smt_37968,4.435821767773866,216.3,2.050772893099337,1.1875669670784756,0
smt_37969,4.435448530360479,216.3,2.050600337660878,1.1875613220711425,0
rbt_606110,1.2614725324837912,61.95,2.0362752743886863,0.9567188831324214,0
rbt_1607284,1.8320571849311829,90.3,2.028856240233868,0.9537544616727311,0
rbt_1607302,1.2416186475239097,61.95,2.0042270339369,0.9416458286979467,0
rbt_607382,1.7910907091669863,90.3,1.9834891574385232,0.9324678245345108,0
rbt_1607273,1.5190587233072739,76.65,1.9818117720903767,0.9312020582491382,0
sbt_26614,3.211036639751412,162.75,1.9729871826429566,1.4942613099991837,0
sbt_26512,3.2110350447292824,162.75,1.9729862025986373,1.4942603189268526,0
sbt_16246,3.2110344636441672,162.75,1.972985845557092,1.4942599584059584,0
sbt_5828,3.2110317146075533,163.8,1.9603368221047333,1.4846796774976643,0
sbt_3790,3.18811307077777,163.8,1.9463449760548046,0.9143854872701992,0
rbt_1137150,1.1986993034415019,61.95,1.9349464139491555,0.9095991012060777,0
rbt_3405843,1.7423943409430585,90.3,1.9295618393610836,0.9073034270813688,0
rbt_1607288,1.4644360215643715,76.65,1.9105492779704778,0.8979556245805808,0
rbt_605817,1.4568522964891404,76.65,1.9006553117927465,0.893359024556613,0
smt_13591,3.0965521866635153,163.8,1.8904470004050762,0.9378213499735023,0
sbt_30492,2.3514060130513412,124.95,1.8818775614656593,0.8843699788135974,0
rbt_607387,1.6906163326925554,90.3,1.872221852372708,0.8798138516561207,0
sbt_21147,2.395357838981365,128.1,1.8699124426084037,0.8786740314971552,0
sbt_17923,2.3953523399710455,128.1,1.869908149860301,0.8786697017446682,0
rbt_626695,1.6835536690325879,90.3,1.8644005194159337,1.4122764699391317,0
rbt_623432,1.683402293244071,90.3,1.8642328828837997,0.8765077515130777,0
sbt_3473,3.0329332166489964,163.8,1.8516075803717926,0.8703465558966178,0
sbt_26790,3.9949707759613906,216.3,1.8469582875457191,0.8683801518812224,0
smt_18691,5.260259034657722,286.65,1.8350807725999378,0.9651543727001816,0
smt_18692,5.259566115702772,286.65,1.8348390426313528,0.964984742885997,0
smt_22142,5.258948580853667,286.65,1.8346236109728475,0.964834060946474,0
smt_29410,5.2583882661906935,286.65,1.8344281410049517,0.9646977449134683,0
smt_4821,5.257853804302053,286.65,1.8342416899710636,0.9645680776179621,0
smt_18693,5.257203067405296,286.65,1.8340146755294946,0.9644106754107494,0
smt_5832,5.256603533546748,286.65,1.8338055236514037,0.9642661213941618,0
smt_18694,5.2559758821379505,286.65,1.8335865627552592,0.9641152653729163,0
smt_5643,5.255422832677289,286.65,1.8333936273076188,0.9639827459858538,0
smt_29483,5.2548732791594865,286.65,1.8332019114458353,0.963851442266603,0
smt_6014,5.254329093736431,286.65,1.8330120682841207,0.9637217935108922,0
smt_18695,5.253701458875751,286.65,1.8327931131609112,0.9635727250484893,0
smt_29482,5.25314354563328,286.65,1.832598480946548,0.9634406324379551,0
smt_6195,5.252558918207176,286.65,1.83239452928909,0.963302636813907,0
smt_6105,5.251972324063217,286.65,1.8321898915273738,0.9631646122333347,0
smt_19334,5.21969094254613,286.65,1.8209282897422396,0.9453278188100388,0
smt_19331,5.219072794156244,286.65,1.8207126440454364,0.9451421084697982,0
smt_22269,5.218465785280013,286.65,1.8205008844514263,0.9449601028203723,0
sbt_34896,3.9055760666185164,216.3,1.8056292494768915,0.8487251211970208,0
sbt_34381,2.9168937156083246,163.8,1.780765394144276,0.8370757045029559,0
rbt_605808,1.57845231005341,90.3,1.7480092027169547,0.8212872510880024,0
rbt_1607326,1.5758681711290938,90.3,1.7451474763334374,0.820469149571824,0
smt_29480,4.983147938429341,286.65,1.7384084906434123,0.9612951547409042,0
smt_19271,4.98200426279985,286.65,1.738009510831973,0.9610692225796046,0
smt_5537,4.981550305667698,286.65,1.7378511444855045,0.9609800623254924,0
smt_40375,2.8461938612737523,163.8,1.7376030899107153,0.864687704663321,0
smt_40374,2.8456409812843173,163.8,1.737265556339632,0.8643610648929121,0
smt_40358,2.8450910373220784,163.8,1.7369298152149442,0.8640369827338672,0
smt_40357,2.8445121014992396,163.8,1.7365763745416603,0.8636967082283215,0
smt_40356,2.844024564366059,163.8,1.7362787328242115,0.8634108685194054,0
smt_40355,2.8434678474634043,163.8,1.735938856815265,0.8630852728913263,0
smt_40354,2.842902229794325,163.8,1.7355935468829822,0.8627553546679975,0
smt_40353,2.842330110817975,163.8,1.7352442678986415,0.8624225554902303,0
smt_40352,2.841852552730804,163.8,1.734952718394874,0.862145467951652,0
smt_40351,2.8414000346816706,163.8,1.7346764558496157,0.861883505274855,0
smt_40350,2.840847096142649,163.8,1.7343388865339735,0.8615642010014323,0
smt_40349,2.8403265015220853,163.8,1.7340210632002961,0.8612643748738971,0
smt_40373,2.8397933513344467,163.8,1.7336955746852543,0.860958127622841,0
smt_40348,2.8397697564225823,163.8,1.7336811699771564,0.8609445933016332,0
smt_40366,2.8393664697724774,163.8,1.7334349632310606,0.8560454775992256,0
smt_40380,2.839322888675427,163.8,1.7334083569447052,0.8560186739428143,0
smt_40347,2.839203963062029,163.8,1.7333357527851214,0.8606205355879428,0
smt_40367,2.8389374658341744,163.8,1.7331730560648195,0.8557818232520874,0
smt_40346,2.8386415075790348,163.8,1.7329923733693737,0.860299315730881,0
smt_40368,2.8384385337136084,163.8,1.7328684577006155,0.8554757793727988,0
smt_40369,2.838095914169206,163.8,1.7326592882595884,0.8552659854020916,0
smt_40345,2.838070594181971,163.8,1.7326438303919234,0.8599742159322546,0
smt_40344,2.8375084718819688,163.8,1.7323006543845962,0.859655063460622,0
smt_19274,4.963164498084549,286.65,1.731437117768899,0.9495257509494341,0
smt_4942,4.962630494877612,286.65,1.7312508267495592,0.9494187605532979,0
smt_18740,4.962109514685935,286.65,1.7310690789066578,0.9493147647441766,0
smt_40362,2.835481712872689,163.8,1.7310633167720932,0.853675243581452,0
smt_5191,4.961591004752408,286.65,1.7308881928318187,0.9492116411397844,0
smt_40378,2.8351483235588137,163.8,1.730859782392438,0.8534736625313845,0
smt_5198,4.961077456710446,286.65,1.7307090377500247,0.9491098782259586,0
smt_40361,2.8346075487768285,163.8,1.7305296390578928,0.8531473157502519,0
smt_5549,4.960511538874706,286.65,1.7305116130733322,0.9489981717191746,0
smt_19273,4.959932812667628,286.65,1.7303097201003412,0.9488844409322206,0
smt_40360,2.834041739460486,163.8,1.7301842121248387,0.8528066976773879,0
smt_5414,4.959447058618701,286.65,1.7301402611612424,0.948789361867617,0
smt_5522,4.9589070217651425,286.65,1.7299518652590766,0.9486840517560683,0
smt_40359,2.833507416158941,163.8,1.7298580074230407,0.8524858247105045,0
smt_40377,2.83284671976997,163.8,1.7294546518742182,0.8520901308036185,0
smt_40376,2.8322919710473977,163.8,1.7291159774404135,0.8517588084385039,0
smt_40861,4.935660851311651,286.65,1.7218422645427007,0.9340635184801007,0
smt_40860,4.935311636359588,286.65,1.7217204382904545,0.9339931221690917,0
smt_40859,4.934944561930381,286.65,1.721592381625809,0.9339193122551649,0
smt_40858,4.934572424530333,286.65,1.7214625587058547,0.9338446798727519,0
...